<?xml version="1.0" encoding="UTF-8"?>

<!-- generated on 2026-01-17T19:03:10.490834+05:30 by Eclipse SUMO netconvert 1.25.0
<netconvertConfiguration xmlns:xsi="http://www.w3.org/2001/XMLSchema-instance" xsi:noNamespaceSchemaLocation="http://sumo.dlr.de/xsd/netconvertConfiguration.xsd">

    <input>
        <node-files value="sumo_env\nodes.nod.xml"/>
        <edge-files value="sumo_env\edges.edg.xml"/>
    </input>

    <output>
        <output-file value="sumo_env\intersection.net.xml"/>
    </output>

</netconvertConfiguration>
-->

<net version="1.20" junctionCornerDetail="5" limitTurnSpeed="5.50" xmlns:xsi="http://www.w3.org/2001/XMLSchema-instance" xsi:noNamespaceSchemaLocation="http://sumo.dlr.de/xsd/net_file.xsd">

    <location netOffset="100.00,100.00" convBoundary="0.00,0.00,200.00,200.00" origBoundary="-100.00,-100.00,100.00,100.00" projParameter="!"/>

    <edge id=":c_0" function="internal">
        <lane id=":c_0_0" index="0" speed="6.51" length="9.03" shape="98.40,107.20 98.05,104.75 97.00,103.00 95.25,101.95 92.80,101.60"/>
    </edge>
    <edge id=":c_1" function="internal">
        <lane id=":c_1_0" index="0" speed="13.00" length="14.40" shape="98.40,107.20 98.40,92.80"/>
    </edge>
    <edge id=":c_2" function="internal">
        <lane id=":c_2_0" index="0" speed="8.00" length="4.07" shape="98.40,107.20 98.95,103.35 99.04,103.20"/>
    </edge>
    <edge id=":c_3" function="internal">
        <lane id=":c_3_0" index="0" speed="3.65" length="1.44" shape="98.40,107.20 99.20,106.00"/>
    </edge>
    <edge id=":c_16" function="internal">
        <lane id=":c_16_0" index="0" speed="8.00" length="10.13" shape="99.04,103.20 100.60,100.60 103.35,98.95 107.20,98.40"/>
    </edge>
    <edge id=":c_17" function="internal">
        <lane id=":c_17_0" index="0" speed="3.65" length="3.23" shape="99.20,106.00 100.00,105.60 100.80,106.00 101.60,107.20"/>
    </edge>
    <edge id=":c_4" function="internal">
        <lane id=":c_4_0" index="0" speed="6.51" length="9.03" shape="107.20,101.60 104.75,101.95 103.00,103.00 101.95,104.75 101.60,107.20"/>
    </edge>
    <edge id=":c_5" function="internal">
        <lane id=":c_5_0" index="0" speed="13.00" length="14.40" shape="107.20,101.60 92.80,101.60"/>
    </edge>
    <edge id=":c_6" function="internal">
        <lane id=":c_6_0" index="0" speed="8.00" length="4.07" shape="107.20,101.60 103.35,101.05 103.20,100.96"/>
    </edge>
    <edge id=":c_7" function="internal">
        <lane id=":c_7_0" index="0" speed="3.65" length="1.44" shape="107.20,101.60 106.00,100.80"/>
    </edge>
    <edge id=":c_18" function="internal">
        <lane id=":c_18_0" index="0" speed="8.00" length="10.13" shape="103.20,100.96 100.60,99.40 98.95,96.65 98.40,92.80"/>
    </edge>
    <edge id=":c_19" function="internal">
        <lane id=":c_19_0" index="0" speed="3.65" length="3.23" shape="106.00,100.80 105.60,100.00 106.00,99.20 107.20,98.40"/>
    </edge>
    <edge id=":c_8" function="internal">
        <lane id=":c_8_0" index="0" speed="6.51" length="9.03" shape="101.60,92.80 101.95,95.25 103.00,97.00 104.75,98.05 107.20,98.40"/>
    </edge>
    <edge id=":c_9" function="internal">
        <lane id=":c_9_0" index="0" speed="13.00" length="14.40" shape="101.60,92.80 101.60,107.20"/>
    </edge>
    <edge id=":c_10" function="internal">
        <lane id=":c_10_0" index="0" speed="8.00" length="4.07" shape="101.60,92.80 101.05,96.65 100.96,96.80"/>
    </edge>
    <edge id=":c_11" function="internal">
        <lane id=":c_11_0" index="0" speed="3.65" length="1.44" shape="101.60,92.80 100.80,94.00"/>
    </edge>
    <edge id=":c_20" function="internal">
        <lane id=":c_20_0" index="0" speed="8.00" length="10.13" shape="100.96,96.80 99.40,99.40 96.65,101.05 92.80,101.60"/>
    </edge>
    <edge id=":c_21" function="internal">
        <lane id=":c_21_0" index="0" speed="3.65" length="3.23" shape="100.80,94.00 100.00,94.40 99.20,94.00 98.40,92.80"/>
    </edge>
    <edge id=":c_12" function="internal">
        <lane id=":c_12_0" index="0" speed="6.51" length="9.03" shape="92.80,98.40 95.25,98.05 97.00,97.00 98.05,95.25 98.40,92.80"/>
    </edge>
    <edge id=":c_13" function="internal">
        <lane id=":c_13_0" index="0" speed="13.00" length="14.40" shape="92.80,98.40 107.20,98.40"/>
    </edge>
    <edge id=":c_14" function="internal">
        <lane id=":c_14_0" index="0" speed="8.00" length="4.07" shape="92.80,98.40 96.65,98.95 96.80,99.04"/>
    </edge>
    <edge id=":c_15" function="internal">
        <lane id=":c_15_0" index="0" speed="3.65" length="1.44" shape="92.80,98.40 94.00,99.20"/>
    </edge>
    <edge id=":c_22" function="internal">
        <lane id=":c_22_0" index="0" speed="8.00" length="10.13" shape="96.80,99.04 99.40,100.60 101.05,103.35 101.60,107.20"/>
    </edge>
    <edge id=":c_23" function="internal">
        <lane id=":c_23_0" index="0" speed="3.65" length="3.23" shape="94.00,99.20 94.40,100.00 94.00,100.80 92.80,101.60"/>
    </edge>
    <edge id=":e_0" function="internal">
        <lane id=":e_0_0" index="0" speed="3.65" length="4.67" shape="200.00,98.40 201.20,99.20 201.60,100.00 201.20,100.80 200.00,101.60"/>
    </edge>
    <edge id=":n_0" function="internal">
        <lane id=":n_0_0" index="0" speed="3.65" length="4.67" shape="101.60,200.00 100.80,201.20 100.00,201.60 99.20,201.20 98.40,200.00"/>
    </edge>
    <edge id=":s_0" function="internal">
        <lane id=":s_0_0" index="0" speed="3.65" length="4.67" shape="98.40,0.00 99.20,-1.20 100.00,-1.60 100.80,-1.20 101.60,0.00"/>
    </edge>
    <edge id=":w_0" function="internal">
        <lane id=":w_0_0" index="0" speed="3.65" length="4.67" shape="0.00,101.60 -1.20,100.80 -1.60,100.00 -1.20,99.20 0.00,98.40"/>
    </edge>

    <edge id="east" from="e" to="c" priority="-1">
        <lane id="east_0" index="0" speed="13.00" length="92.80" shape="200.00,101.60 107.20,101.60"/>
    </edge>
    <edge id="east_out" from="c" to="w" priority="-1">
        <lane id="east_out_0" index="0" speed="13.00" length="92.80" shape="92.80,101.60 0.00,101.60"/>
    </edge>
    <edge id="north" from="n" to="c" priority="-1">
        <lane id="north_0" index="0" speed="13.00" length="92.80" shape="98.40,200.00 98.40,107.20"/>
    </edge>
    <edge id="north_out" from="c" to="s" priority="-1">
        <lane id="north_out_0" index="0" speed="13.00" length="92.80" shape="98.40,92.80 98.40,0.00"/>
    </edge>
    <edge id="south" from="s" to="c" priority="-1">
        <lane id="south_0" index="0" speed="13.00" length="92.80" shape="101.60,0.00 101.60,92.80"/>
    </edge>
    <edge id="south_out" from="c" to="n" priority="-1">
        <lane id="south_out_0" index="0" speed="13.00" length="92.80" shape="101.60,107.20 101.60,200.00"/>
    </edge>
    <edge id="west" from="w" to="c" priority="-1">
        <lane id="west_0" index="0" speed="13.00" length="92.80" shape="0.00,98.40 92.80,98.40"/>
    </edge>
    <edge id="west_out" from="c" to="e" priority="-1">
        <lane id="west_out_0" index="0" speed="13.00" length="92.80" shape="107.20,98.40 200.00,98.40"/>
    </edge>

    <tlLogic id="c" type="static" programID="0" offset="0">
        <phase duration="42" state="GGggrrrrGGggrrrr"/>
        <phase duration="3"  state="yyyyrrrryyyyrrrr"/>
        <phase duration="42" state="rrrrGGggrrrrGGgg"/>
        <phase duration="3"  state="rrrryyyyrrrryyyy"/>
    </tlLogic>

    <junction id="c" type="traffic_light" x="100.00" y="100.00" incLanes="north_0 east_0 south_0 west_0" intLanes=":c_0_0 :c_1_0 :c_16_0 :c_17_0 :c_4_0 :c_5_0 :c_18_0 :c_19_0 :c_8_0 :c_9_0 :c_20_0 :c_21_0 :c_12_0 :c_13_0 :c_22_0 :c_23_0" shape="96.80,107.20 103.20,107.20 103.64,104.98 104.20,104.20 104.98,103.64 105.98,103.31 107.20,103.20 107.20,96.80 104.98,96.36 104.20,95.80 103.64,95.02 103.31,94.02 103.20,92.80 96.80,92.80 96.36,95.02 95.80,95.80 95.02,96.36 94.02,96.69 92.80,96.80 92.80,103.20 95.02,103.64 95.80,104.20 96.36,104.98 96.69,105.98">
        <request index="0"  response="0000000000000000" foes="1000010000100000" cont="0"/>
        <request index="1"  response="0100000001000000" foes="0111110001100000" cont="0"/>
        <request index="2"  response="0100011101000000" foes="0110011111100000" cont="1"/>
        <request index="3"  response="0100001000010000" foes="0100001000010000" cont="1"/>
        <request index="4"  response="0000001000000000" foes="0100001000001000" cont="0"/>
        <request index="5"  response="0000011000000111" foes="1100011000000111" cont="0"/>
        <request index="6"  response="0111011000000110" foes="0111111000000110" cont="1"/>
        <request index="7"  response="0010000100000100" foes="0010000100000100" cont="1"/>
        <request index="8"  response="0000000000000000" foes="0010000010000100" cont="0"/>
        <request index="9"  response="0100000001000000" foes="0110000001111100" cont="0"/>
        <request index="10" response="0100000001000011" foes="1110000001100111" cont="1"/>
        <request index="11" response="0001000001000010" foes="0001000001000010" cont="1"/>
        <request index="12" response="0000000000000010" foes="0000100001000010" cont="0"/>
        <request index="13" response="0000011100000110" foes="0000011111000110" cont="0"/>
        <request index="14" response="0000011000110110" foes="0000011001111110" cont="1"/>
        <request index="15" response="0000010000100001" foes="0000010000100001" cont="1"/>
    </junction>
    <junction id="e" type="priority" x="200.00" y="100.00" incLanes="west_out_0" intLanes=":e_0_0" shape="200.00,100.00 200.00,96.80 200.00,100.00">
        <request index="0" response="0" foes="0" cont="0"/>
    </junction>
    <junction id="n" type="priority" x="100.00" y="200.00" incLanes="south_out_0" intLanes=":n_0_0" shape="100.00,200.00 103.20,200.00 100.00,200.00">
        <request index="0" response="0" foes="0" cont="0"/>
    </junction>
    <junction id="s" type="priority" x="100.00" y="0.00" incLanes="north_out_0" intLanes=":s_0_0" shape="100.00,0.00 96.80,0.00 100.00,0.00">
        <request index="0" response="0" foes="0" cont="0"/>
    </junction>
    <junction id="w" type="priority" x="0.00" y="100.00" incLanes="east_out_0" intLanes=":w_0_0" shape="0.00,100.00 0.00,103.20 0.00,100.00">
        <request index="0" response="0" foes="0" cont="0"/>
    </junction>

    <junction id=":c_16_0" type="internal" x="99.04" y="103.20" incLanes=":c_2_0 south_0" intLanes=":c_5_0 :c_6_0 :c_7_0 :c_8_0 :c_9_0 :c_13_0 :c_14_0"/>
    <junction id=":c_17_0" type="internal" x="99.20" y="106.00" incLanes=":c_3_0 east_0 south_0 west_0" intLanes=":c_4_0 :c_9_0 :c_14_0"/>
    <junction id=":c_18_0" type="internal" x="103.20" y="100.96" incLanes=":c_6_0 west_0" intLanes=":c_1_0 :c_2_0 :c_9_0 :c_10_0 :c_11_0 :c_12_0 :c_13_0"/>
    <junction id=":c_19_0" type="internal" x="106.00" y="100.80" incLanes=":c_7_0 north_0 south_0 west_0" intLanes=":c_2_0 :c_8_0 :c_13_0"/>
    <junction id=":c_20_0" type="internal" x="100.96" y="96.80" incLanes=":c_10_0 north_0" intLanes=":c_0_0 :c_1_0 :c_5_0 :c_6_0 :c_13_0 :c_14_0 :c_15_0"/>
    <junction id=":c_21_0" type="internal" x="100.80" y="94.00" incLanes=":c_11_0 east_0 north_0 west_0" intLanes=":c_1_0 :c_6_0 :c_12_0"/>
    <junction id=":c_22_0" type="internal" x="96.80" y="99.04" incLanes=":c_14_0 east_0" intLanes=":c_1_0 :c_2_0 :c_3_0 :c_4_0 :c_5_0 :c_9_0 :c_10_0"/>
    <junction id=":c_23_0" type="internal" x="94.00" y="99.20" incLanes=":c_15_0 east_0 north_0 south_0" intLanes=":c_0_0 :c_5_0 :c_10_0"/>

    <connection from="east" to="south_out" fromLane="0" toLane="0" via=":c_4_0" tl="c" linkIndex="4" dir="r" state="o"/>
    <connection from="east" to="east_out" fromLane="0" toLane="0" via=":c_5_0" tl="c" linkIndex="5" dir="s" state="o"/>
    <connection from="east" to="north_out" fromLane="0" toLane="0" via=":c_6_0" tl="c" linkIndex="6" dir="l" state="o"/>
    <connection from="east" to="west_out" fromLane="0" toLane="0" via=":c_7_0" tl="c" linkIndex="7" dir="t" state="o"/>
    <connection from="east_out" to="west" fromLane="0" toLane="0" via=":w_0_0" dir="t" state="M"/>
    <connection from="north" to="east_out" fromLane="0" toLane="0" via=":c_0_0" tl="c" linkIndex="0" dir="r" state="O"/>
    <connection from="north" to="north_out" fromLane="0" toLane="0" via=":c_1_0" tl="c" linkIndex="1" dir="s" state="O"/>
    <connection from="north" to="west_out" fromLane="0" toLane="0" via=":c_2_0" tl="c" linkIndex="2" dir="l" state="o"/>
    <connection from="north" to="south_out" fromLane="0" toLane="0" via=":c_3_0" tl="c" linkIndex="3" dir="t" state="o"/>
    <connection from="north_out" to="south" fromLane="0" toLane="0" via=":s_0_0" dir="t" state="M"/>
    <connection from="south" to="west_out" fromLane="0" toLane="0" via=":c_8_0" tl="c" linkIndex="8" dir="r" state="O"/>
    <connection from="south" to="south_out" fromLane="0" toLane="0" via=":c_9_0" tl="c" linkIndex="9" dir="s" state="O"/>
    <connection from="south" to="east_out" fromLane="0" toLane="0" via=":c_10_0" tl="c" linkIndex="10" dir="l" state="o"/>
    <connection from="south" to="north_out" fromLane="0" toLane="0" via=":c_11_0" tl="c" linkIndex="11" dir="t" state="o"/>
    <connection from="south_out" to="north" fromLane="0" toLane="0" via=":n_0_0" dir="t" state="M"/>
    <connection from="west" to="north_out" fromLane="0" toLane="0" via=":c_12_0" tl="c" linkIndex="12" dir="r" state="o"/>
    <connection from="west" to="west_out" fromLane="0" toLane="0" via=":c_13_0" tl="c" linkIndex="13" dir="s" state="o"/>
    <connection from="west" to="south_out" fromLane="0" toLane="0" via=":c_14_0" tl="c" linkIndex="14" dir="l" state="o"/>
    <connection from="west" to="east_out" fromLane="0" toLane="0" via=":c_15_0" tl="c" linkIndex="15" dir="t" state="o"/>
    <connection from="west_out" to="east" fromLane="0" toLane="0" via=":e_0_0" dir="t" state="M"/>

    <connection from=":c_0" to="east_out" fromLane="0" toLane="0" dir="r" state="M"/>
    <connection from=":c_1" to="north_out" fromLane="0" toLane="0" dir="s" state="M"/>
    <connection from=":c_2" to="west_out" fromLane="0" toLane="0" via=":c_16_0" dir="l" state="m"/>
    <connection from=":c_16" to="west_out" fromLane="0" toLane="0" dir="l" state="M"/>
    <connection from=":c_3" to="south_out" fromLane="0" toLane="0" via=":c_17_0" dir="t" state="m"/>
    <connection from=":c_17" to="south_out" fromLane="0" toLane="0" dir="t" state="M"/>
    <connection from=":c_4" to="south_out" fromLane="0" toLane="0" dir="r" state="M"/>
    <connection from=":c_5" to="east_out" fromLane="0" toLane="0" dir="s" state="M"/>
    <connection from=":c_6" to="north_out" fromLane="0" toLane="0" via=":c_18_0" dir="l" state="m"/>
    <connection from=":c_18" to="north_out" fromLane="0" toLane="0" dir="l" state="M"/>
    <connection from=":c_7" to="west_out" fromLane="0" toLane="0" via=":c_19_0" dir="t" state="m"/>
    <connection from=":c_19" to="west_out" fromLane="0" toLane="0" dir="t" state="M"/>
    <connection from=":c_8" to="west_out" fromLane="0" toLane="0" dir="r" state="M"/>
    <connection from=":c_9" to="south_out" fromLane="0" toLane="0" dir="s" state="M"/>
    <connection from=":c_10" to="east_out" fromLane="0" toLane="0" via=":c_20_0" dir="l" state="m"/>
    <connection from=":c_20" to="east_out" fromLane="0" toLane="0" dir="l" state="M"/>
    <connection from=":c_11" to="north_out" fromLane="0" toLane="0" via=":c_21_0" dir="t" state="m"/>
    <connection from=":c_21" to="north_out" fromLane="0" toLane="0" dir="t" state="M"/>
    <connection from=":c_12" to="north_out" fromLane="0" toLane="0" dir="r" state="M"/>
    <connection from=":c_13" to="west_out" fromLane="0" toLane="0" dir="s" state="M"/>
    <connection from=":c_14" to="south_out" fromLane="0" toLane="0" via=":c_22_0" dir="l" state="m"/>
    <connection from=":c_22" to="south_out" fromLane="0" toLane="0" dir="l" state="M"/>
    <connection from=":c_15" to="east_out" fromLane="0" toLane="0" via=":c_23_0" dir="t" state="m"/>
    <connection from=":c_23" to="east_out" fromLane="0" toLane="0" dir="t" state="M"/>
    <connection from=":e_0" to="east" fromLane="0" toLane="0" dir="t" state="M"/>
    <connection from=":n_0" to="north" fromLane="0" toLane="0" dir="t" state="M"/>
    <connection from=":s_0" to="south" fromLane="0" toLane="0" dir="t" state="M"/>
    <connection from=":w_0" to="west" fromLane="0" toLane="0" dir="t" state="M"/>

</net>
