<?xml version="1.0" encoding="UTF-8"?>
<routes>
    <vType id="car" accel="2.6" decel="4.5" length="5"/>

    <route id="r1" edges="north north_out"/>
    <route id="r2" edges="south south_out"/>
    <route id="r3" edges="east east_out"/>
    <route id="r4" edges="west west_out"/>

    <flow id="f1" route="r1" begin="0" end="100000" vehsPerHour="900" type="car"/>
    <flow id="f2" route="r2" begin="0" end="100000" vehsPerHour="900" type="car"/>
    <flow id="f3" route="r3" begin="0" end="100000" vehsPerHour="900" type="car"/>
    <flow id="f4" route="r4" begin="0" end="100000" vehsPerHour="900" type="car"/>

</routes>
